#MODFLOW model file for testing MODSIM/MODFLOW coupling
#NLAY NROW NCOL NPER  ITMUNI LENUNI  (ITMUNI = 4 (meters); LENUNI = 2 (days))
    3   64  133 9132       4      2             
 0 0 0 0
CONSTANT 400                                                          #DELR
CONSTANT 400                                                          #DELC
INTERNAL 1 (free) -1                                                  #TOP Elevation
      0.00      0.00      0.00      0.00      0.00      0.00      0.00      0.00      0.00      0.00      0.00      0.00      0.00      0.00      0.00      0.00      0.00      0.00      0.00      0.00      0.00      0.00      0.00      0.00      0.00      0.00      0.00      0.00      0.00      0.00      0.00      0.00      0.00      0.00      0.00      0.00      0.00      0.00      0.00      0.00      0.00      0.00      0.00      0.00      0.00      0.00      0.00      0.00      0.00      0.00      0.00      0.00      0.00      0.00      0.00      0.00      0.00      0.00      0.00   1386.34   1382.96   1379.82   1377.09   1375.08   1374.95   1373.72   1372.59   1371.75   1370.85   1369.87   1368.90   1368.01   1367.23   1366.55   1365.97   1365.46   1365.03   1364.64   1364.31   1364.03   1363.78   1363.58   1363.43   1363.32   1363.26   1363.24   1363.25      0.00      0.00      0.00      0.00      0.00      0.00      0.00      0.00      0.00      0.00      0.00      0.00      0.00      0.00      0.00      0.00      0.00      0.00      0.00      0.00      0.00      0.00      0.00      0.00      0.00      0.00      0.00      0.00      0.00      0.00      0.00      0.00      0.00      0.00      0.00      0.00      0.00      0.00      0.00      0.00      0.00      0.00      0.00      0.00      0.00      0.00
      0.00      0.00      0.00      0.00      0.00      0.00      0.00      0.00      0.00      0.00      0.00      0.00      0.00      0.00      0.00      0.00      0.00      0.00      0.00      0.00      0.00      0.00      0.00      0.00      0.00      0.00      0.00      0.00      0.00      0.00      0.00      0.00      0.00      0.00      0.00      0.00      0.00      0.00      0.00      0.00      0.00      0.00      0.00      0.00      0.00      0.00      0.00      0.00      0.00      0.00      0.00      0.00      0.00      0.00      0.00      0.00      0.00      0.00   1386.69   1383.32   1380.14   1377.31   1375.00   1373.43   1372.87   1371.98   1371.03   1370.17   1369.30   1368.43   1367.59   1366.81   1366.13   1365.55   1365.07   1364.66   1364.31   1364.02   1363.76   1363.55   1363.36   1363.20   1363.07   1362.96   1362.88   1362.82   1362.78      0.00      0.00      0.00      0.00      0.00      0.00      0.00      0.00      0.00      0.00      0.00      0.00      0.00      0.00      0.00      0.00      0.00      0.00      0.00      0.00      0.00      0.00      0.00      0.00      0.00      0.00      0.00      0.00      0.00      0.00      0.00      0.00      0.00      0.00      0.00      0.00      0.00      0.00      0.00      0.00      0.00      0.00      0.00      0.00      0.00      0.00
      0.00      0.00      0.00      0.00      0.00      0.00      0.00      0.00      0.00      0.00      0.00      0.00      0.00      0.00      0.00      0.00      0.00      0.00      0.00      0.00      0.00      0.00      0.00      0.00      0.00      0.00      0.00      0.00      0.00      0.00      0.00      0.00      0.00      0.00      0.00      0.00      0.00      0.00      0.00      0.00      0.00      0.00      0.00      0.00      0.00      0.00      0.00      0.00      0.00      0.00      0.00      0.00      0.00      0.00      0.00      0.00      0.00   1386.63   1383.39   1380.30   1377.45   1375.01   1373.11   1371.79   1371.00   1370.22   1369.40   1368.61   1367.82   1367.04   1366.31   1365.64   1365.07   1364.59   1364.20   1363.88   1363.63   1363.42   1363.25   1363.10   1362.98   1362.87   1362.77   1362.68   1362.59   1362.52   1362.45      0.00      0.00      0.00      0.00      0.00      0.00      0.00      0.00      0.00      0.00      0.00      0.00      0.00      0.00      0.00      0.00      0.00      0.00      0.00      0.00      0.00      0.00      0.00      0.00      0.00      0.00      0.00      0.00      0.00      0.00      0.00      0.00      0.00      0.00      0.00      0.00      0.00      0.00      0.00      0.00      0.00      0.00      0.00      0.00      0.00      0.00
      0.00      0.00      0.00      0.00      0.00      0.00      0.00      0.00      0.00      0.00      0.00      0.00      0.00      0.00      0.00      0.00      0.00      0.00      0.00      0.00      0.00      0.00      0.00      0.00      0.00      0.00      0.00      0.00      0.00      0.00      0.00      0.00      0.00      0.00      0.00      0.00      0.00      0.00      0.00      0.00      0.00      0.00      0.00      0.00      0.00      0.00      0.00      0.00      0.00      0.00      0.00      0.00      0.00      0.00      0.00      0.00   1386.06   1382.80   1380.11   1377.46   1375.02   1373.01   1371.42   1370.23   1369.37   1368.61   1367.87   1367.15   1366.44   1365.76   1365.12   1364.55   1364.07   1363.68   1363.38   1363.15   1362.99   1362.86   1362.76   1362.69   1362.62   1362.56   1362.51   1362.44   1362.37   1362.29   1362.21      0.00      0.00      0.00      0.00      0.00      0.00      0.00      0.00      0.00      0.00      0.00      0.00      0.00      0.00      0.00      0.00      0.00      0.00      0.00      0.00      0.00      0.00      0.00      0.00      0.00      0.00      0.00      0.00      0.00      0.00      0.00      0.00      0.00      0.00      0.00      0.00      0.00      0.00      0.00      0.00      0.00      0.00      0.00      0.00      0.00      0.00
      0.00      0.00      0.00      0.00      0.00      0.00      0.00      0.00      0.00      0.00      0.00      0.00      0.00      0.00      0.00      0.00      0.00      0.00      0.00      0.00      0.00      0.00      0.00      0.00      0.00      0.00      0.00      0.00      0.00      0.00      0.00      0.00      0.00      0.00      0.00      0.00      0.00      0.00      0.00      0.00      0.00      0.00      0.00      0.00      0.00      0.00      0.00      0.00      0.00      0.00      0.00      0.00      0.00      0.00      0.00   1385.48   1381.85   1378.91   1377.18   1375.02   1373.04   1371.33   1369.93   1368.83   1367.96   1367.22   1366.52   1365.85   1365.21   1364.61   1364.05   1363.57   1363.17   1362.86   1362.64   1362.49   1362.40   1362.35   1362.33   1362.31   1362.30   1362.29   1362.27   1362.23   1362.18   1362.11   1362.02      0.00      0.00      0.00      0.00      0.00      0.00      0.00      0.00      0.00      0.00      0.00      0.00      0.00      0.00      0.00      0.00      0.00      0.00      0.00      0.00      0.00      0.00      0.00      0.00      0.00      0.00      0.00      0.00      0.00      0.00      0.00      0.00      0.00      0.00      0.00      0.00      0.00      0.00      0.00      0.00      0.00      0.00      0.00      0.00      0.00      0.00
      0.00      0.00      0.00      0.00      0.00      0.00      0.00      0.00      0.00      0.00      0.00      0.00      0.00      0.00      0.00      0.00      0.00      0.00      0.00      0.00      0.00      0.00      0.00      0.00      0.00      0.00      0.00      0.00      0.00      0.00      0.00      0.00      0.00      0.00      0.00      0.00      0.00      0.00      0.00      0.00      0.00      0.00      0.00      0.00      0.00      0.00      0.00      0.00      0.00      0.00      0.00      0.00      0.00      0.00   1385.31   1381.42   1377.92   1375.21   1374.88   1373.13   1371.38   1369.88   1368.63   1367.61   1366.77   1366.04   1365.37   1364.74   1364.15   1363.60   1363.12   1362.71   1362.38   1362.14   1361.99   1361.92   1361.89   1361.91   1361.94   1361.99   1362.02   1362.05   1362.07   1362.06   1362.03   1361.97   1361.89      0.00      0.00      0.00      0.00      0.00      0.00      0.00      0.00      0.00      0.00      0.00      0.00      0.00      0.00      0.00      0.00      0.00      0.00      0.00      0.00      0.00      0.00      0.00      0.00      0.00      0.00      0.00      0.00      0.00      0.00      0.00      0.00      0.00      0.00      0.00      0.00      0.00      0.00      0.00      0.00      0.00      0.00      0.00      0.00      0.00      0.00
      0.00      0.00      0.00      0.00      0.00      0.00      0.00      0.00      0.00      0.00      0.00      0.00      0.00      0.00      0.00      0.00      0.00      0.00      0.00      0.00      0.00      0.00      0.00      0.00      0.00      0.00      0.00      0.00      0.00      0.00      0.00      0.00      0.00      0.00      0.00      0.00      0.00      0.00      0.00      0.00      0.00      0.00      0.00      0.00      0.00      0.00      0.00      0.00      0.00      0.00      0.00      0.00      0.00   1385.30   1381.42   1377.92   1375.01   1373.01   1372.27   1371.09   1369.78   1368.54   1367.47   1366.54   1365.75   1365.05   1364.40   1363.80   1363.25   1362.75   1362.31   1361.96   1361.69   1361.52   1361.43   1361.41   1361.46   1361.53   1361.63   1361.72   1361.81   1361.88   1361.92   1361.94   1361.93   1361.89   1361.81      0.00      0.00      0.00      0.00      0.00      0.00      0.00      0.00      0.00      0.00      0.00      0.00      0.00      0.00      0.00      0.00      0.00      0.00      0.00      0.00      0.00      0.00      0.00      0.00      0.00      0.00      0.00      0.00      0.00      0.00      0.00      0.00      0.00      0.00      0.00      0.00      0.00      0.00      0.00      0.00      0.00      0.00      0.00      0.00      0.00      0.00
      0.00      0.00      0.00      0.00      0.00      0.00      0.00      0.00      0.00      0.00      0.00      0.00      0.00      0.00      0.00      0.00      0.00      0.00      0.00      0.00      0.00      0.00      0.00      0.00      0.00      0.00      0.00      0.00      0.00      0.00      0.00      0.00      0.00      0.00      0.00      0.00      0.00      0.00      0.00      0.00      0.00      0.00      0.00      0.00      0.00      0.00      0.00      0.00      0.00      0.00      0.00      0.00   1385.26   1381.33   1377.90   1375.01   1372.76   1371.21   1370.31   1369.39   1368.38   1367.39   1366.47   1365.65   1364.91   1364.23   1363.61   1363.03   1362.50   1362.03   1361.63   1361.31   1361.09   1360.97   1360.94   1360.98   1361.08   1361.21   1361.37   1361.52   1361.65   1361.76   1361.84   1361.89   1361.90   1361.87   1361.80      0.00      0.00      0.00      0.00      0.00      0.00      0.00      0.00      0.00      0.00      0.00      0.00      0.00      0.00      0.00      0.00      0.00      0.00      0.00      0.00      0.00      0.00      0.00      0.00      0.00      0.00      0.00      0.00      0.00      0.00      0.00      0.00      0.00      0.00      0.00      0.00      0.00      0.00      0.00      0.00      0.00      0.00      0.00      0.00      0.00      0.00
      0.00      0.00      0.00      0.00      0.00      0.00      0.00      0.00      0.00      0.00      0.00      0.00      0.00      0.00      0.00      0.00      0.00      0.00      0.00      0.00      0.00      0.00      0.00      0.00      0.00      0.00      0.00      0.00      0.00      0.00      0.00      0.00      0.00      0.00      0.00      0.00      0.00      0.00      0.00      0.00      0.00      0.00      0.00      0.00      0.00      0.00      0.00      0.00      0.00      0.00      0.00      0.00   1381.52   1377.78   1375.00   1372.83   1371.13   1369.88   1368.99   1368.18   1367.34   1366.50   1365.70   1364.94   1364.24   1363.58   1362.97   1362.40   1361.88   1361.42   1361.04   1360.76   1360.57   1360.49   1360.50   1360.59   1360.74   1360.94   1361.15   1361.36   1361.55   1361.71   1361.83   1361.91   1361.94   1361.93   1361.86      0.00      0.00      0.00      0.00      0.00      0.00      0.00      0.00      0.00      0.00      0.00      0.00      0.00      0.00      0.00      0.00      0.00      0.00      0.00      0.00      0.00      0.00      0.00      0.00      0.00      0.00      0.00      0.00      0.00      0.00      0.00      0.00      0.00      0.00      0.00      0.00      0.00      0.00      0.00      0.00      0.00      0.00      0.00      0.00      0.00      0.00
      0.00      0.00      0.00      0.00      0.00      0.00      0.00      0.00      0.00      0.00      0.00      0.00      0.00      0.00      0.00      0.00      0.00      0.00      0.00      0.00      0.00      0.00      0.00      0.00      0.00      0.00      0.00      0.00      0.00      0.00      0.00      0.00      0.00      0.00      0.00      0.00      0.00      0.00      0.00      0.00      0.00      0.00      0.00      0.00      0.00      0.00      0.00      0.00      0.00      0.00      0.00   1382.36   1378.75   1375.15   1373.15   1371.54   1370.21   1369.14   1368.27   1367.49   1366.71   1365.94   1365.17   1364.44   1363.74   1363.09   1362.47   1361.89   1361.37   1360.91   1360.54   1360.27   1360.10   1360.05   1360.10   1360.24   1360.45   1360.70   1360.97   1361.23   1361.48   1361.70   1361.87   1361.99   1362.05   1362.06   1362.00      0.00      0.00      0.00      0.00      0.00      0.00      0.00      0.00      0.00      0.00      0.00      0.00      0.00      0.00      0.00      0.00      0.00      0.00      0.00      0.00      0.00      0.00      0.00      0.00      0.00      0.00      0.00      0.00      0.00      0.00      0.00      0.00      0.00      0.00      0.00      0.00      0.00      0.00      0.00      0.00      0.00      0.00      0.00      0.00      0.00      0.00
      0.00      0.00      0.00      0.00      0.00      0.00      0.00      0.00      0.00      0.00      0.00      0.00      0.00      0.00      0.00      0.00      0.00      0.00      0.00      0.00      0.00      0.00      0.00      0.00      0.00      0.00      0.00      0.00      0.00      0.00      0.00      0.00      0.00      0.00      0.00      0.00      0.00      0.00      0.00      0.00      0.00      0.00      0.00      0.00      0.00      0.00      0.00      0.00      0.00      0.00   1383.20   1380.45   1377.58   1374.97   1372.88   1371.29   1370.02   1368.98   1368.08   1367.27   1366.47   1365.69   1364.91   1364.16   1363.43   1362.74   1362.09   1361.49   1360.95   1360.49   1360.11   1359.84   1359.69   1359.66   1359.74   1359.92   1360.18   1360.48   1360.81   1361.14   1361.45   1361.72   1361.95   1362.12   1362.22   1362.25   1362.21      0.00      0.00      0.00      0.00      0.00      0.00      0.00      0.00      0.00      0.00      0.00      0.00      0.00      0.00      0.00      0.00      0.00      0.00      0.00      0.00      0.00      0.00      0.00      0.00      0.00      0.00      0.00      0.00      0.00      0.00      0.00      0.00      0.00      0.00      0.00      0.00      0.00      0.00      0.00      0.00      0.00      0.00      0.00      0.00      0.00      0.00
      0.00      0.00      0.00      0.00      0.00      0.00      0.00      0.00      0.00      0.00      0.00      0.00      0.00      0.00      0.00      0.00      0.00      0.00      0.00      0.00      0.00      0.00      0.00      0.00      0.00      0.00      0.00      0.00      0.00      0.00      0.00      0.00      0.00      0.00      0.00      0.00      0.00      0.00      0.00      0.00      0.00      0.00      0.00      0.00      0.00      0.00      0.00      0.00      0.00   1383.61   1381.49   1379.23   1377.00   1374.99   1373.12   1371.59   1370.34   1369.26   1368.31   1367.42   1366.57   1365.72   1364.89   1364.08   1363.29   1362.54   1361.83   1361.19   1360.61   1360.12   1359.73   1359.45   1359.31   1359.29   1359.41   1359.63   1359.94   1360.30   1360.70   1361.09   1361.46   1361.79   1362.07   1362.29   1362.43   1362.49   1362.47      0.00      0.00      0.00      0.00      0.00      0.00      0.00      0.00      0.00      0.00      0.00      0.00      0.00      0.00      0.00      0.00      0.00      0.00      0.00      0.00      0.00      0.00      0.00      0.00      0.00      0.00      0.00      0.00      0.00      0.00      0.00      0.00      0.00      0.00      0.00      0.00      0.00      0.00      0.00      0.00      0.00      0.00      0.00      0.00      0.00      0.00
      0.00      0.00      0.00      0.00      0.00      0.00      0.00      0.00      0.00      0.00      0.00      0.00      0.00      0.00      0.00      0.00      0.00      0.00      0.00      0.00      0.00      0.00      0.00      0.00      0.00      0.00      0.00      0.00      0.00      0.00      0.00      0.00      0.00      0.00      0.00      0.00      0.00      0.00      0.00      0.00      0.00      0.00      0.00      0.00      0.00      0.00      0.00      0.00   1383.87   1382.13   1380.29   1378.41   1376.62   1375.00   1373.47   1372.12   1370.91   1369.82   1368.80   1367.83   1366.89   1365.96   1365.05   1364.15   1363.28   1362.45   1361.67   1360.96   1360.33   1359.80   1359.38   1359.09   1358.95   1358.96   1359.11   1359.38   1359.74   1360.16   1360.62   1361.07   1361.51   1361.90   1362.24   1362.51   1362.69   1362.77   1362.77      0.00      0.00      0.00      0.00      0.00      0.00      0.00      0.00      0.00      0.00      0.00      0.00      0.00      0.00      0.00      0.00      0.00      0.00      0.00      0.00      0.00      0.00      0.00      0.00      0.00      0.00      0.00      0.00      0.00      0.00      0.00      0.00      0.00      0.00      0.00      0.00      0.00      0.00      0.00      0.00      0.00      0.00      0.00      0.00      0.00      0.00
      0.00      0.00      0.00      0.00      0.00      0.00      0.00      0.00      0.00      0.00      0.00      0.00      0.00      0.00      0.00      0.00      0.00      0.00      0.00      0.00      0.00      0.00      0.00      0.00      0.00      0.00      0.00      0.00      0.00      0.00      0.00      0.00      0.00      0.00      0.00      0.00      0.00      0.00      0.00      0.00      0.00      0.00      0.00      0.00      0.00      0.00      0.00   1384.25   1382.73   1381.13   1379.49   1377.87   1376.35   1375.00   1373.86   1372.73   1371.60   1370.50   1369.42   1368.37   1367.33   1366.31   1365.31   1364.32   1363.36   1362.44   1361.57   1360.78   1360.08   1359.50   1359.05   1358.75   1358.62   1358.65   1358.84   1359.16   1359.58   1360.06   1360.58   1361.11   1361.61   1362.06   1362.45   1362.76   1362.98   1363.09   1363.10      0.00      0.00      0.00      0.00      0.00      0.00      0.00      0.00      0.00      0.00      0.00      0.00      0.00      0.00      0.00      0.00      0.00      0.00      0.00      0.00      0.00      0.00      0.00      0.00      0.00      0.00      0.00      0.00      0.00      0.00      0.00      0.00      0.00      0.00      0.00      0.00      0.00      0.00      0.00      0.00      0.00      0.00      0.00      0.00      0.00      0.00
      0.00      0.00      0.00      0.00      0.00      0.00      0.00      0.00      0.00      0.00      0.00      0.00      0.00      0.00      0.00      0.00      0.00      0.00      0.00      0.00      0.00      0.00      0.00      0.00      0.00      0.00      0.00      0.00      0.00      0.00      0.00      0.00      0.00      0.00      0.00      0.00      0.00      0.00      0.00      0.00      0.00      0.00      0.00      0.00      0.00      0.00   1384.71   1383.41   1381.99   1380.52   1379.04   1377.59   1376.22   1375.01   1374.32   1373.36   1372.28   1371.16   1370.03   1368.91   1367.79   1366.68   1365.59   1364.52   1363.46   1362.45   1361.50   1360.62   1359.85   1359.21   1358.72   1358.41   1358.29   1358.35   1358.59   1358.97   1359.46   1360.01   1360.60   1361.19   1361.76   1362.27   1362.71   1363.06   1363.31   1363.44   1363.46      0.00      0.00      0.00      0.00      0.00      0.00      0.00      0.00      0.00      0.00      0.00      0.00      0.00      0.00      0.00      0.00      0.00      0.00      0.00      0.00      0.00      0.00      0.00      0.00      0.00      0.00      0.00      0.00      0.00      0.00      0.00      0.00      0.00      0.00      0.00      0.00      0.00      0.00      0.00      0.00      0.00      0.00      0.00      0.00      0.00      0.00
      0.00      0.00      0.00      0.00      0.00      0.00      0.00      0.00      0.00      0.00      0.00      0.00      0.00      0.00      0.00      0.00      0.00      0.00      0.00      0.00      0.00      0.00      0.00      0.00   1386.73   1385.58   1384.96   1384.73   1384.81   1385.07   1385.46   1385.88   1386.29   1386.64   1386.93   1387.15   1387.29   1387.36   1387.36   1387.29   1387.18   1387.01   1386.77   1386.39   1385.82   1385.04   1384.04   1382.86   1381.56   1380.21   1378.86   1377.58   1376.43   1375.54   1375.00   1373.95   1372.84   1371.69   1370.53   1369.35   1368.17   1367.00   1365.83   1364.67   1363.54   1362.44   1361.40   1360.44   1359.60   1358.90   1358.38   1358.07   1357.97   1358.08   1358.38   1358.82   1359.38   1360.00   1360.66   1361.32   1361.95   1362.51   1363.00   1363.39   1363.66   1363.81   1363.84      0.00      0.00      0.00      0.00      0.00      0.00      0.00      0.00      0.00      0.00      0.00      0.00      0.00      0.00      0.00      0.00      0.00      0.00      0.00      0.00      0.00      0.00      0.00      0.00      0.00      0.00      0.00      0.00      0.00      0.00      0.00      0.00      0.00      0.00      0.00      0.00      0.00      0.00      0.00      0.00      0.00      0.00      0.00      0.00      0.00      0.00
      0.00      0.00      0.00      0.00      0.00      0.00      0.00      0.00      0.00      0.00      0.00      0.00      0.00      0.00      0.00      0.00      0.00      0.00      0.00      0.00      0.00   1394.79   1390.79   1387.86   1385.82   1384.48   1383.70   1383.34   1383.31   1383.50   1383.84   1384.25   1384.67   1385.06   1385.40   1385.69   1385.93   1386.10   1386.19   1386.21   1386.16   1386.04   1385.85   1385.54   1385.08   1384.43   1383.56   1382.51   1381.33   1380.08   1378.82   1377.64   1376.60   1375.73   1375.00   1374.14   1373.13   1372.02   1370.85   1369.64   1368.42   1367.19   1365.96   1364.74   1363.53   1362.36   1361.25   1360.21   1359.30   1358.56   1358.02   1357.71   1357.65   1357.82   1358.18   1358.70   1359.33   1360.02   1360.75   1361.48   1362.17   1362.78   1363.31   1363.73   1364.02   1364.19   1364.22      0.00      0.00      0.00      0.00      0.00      0.00      0.00      0.00      0.00      0.00      0.00      0.00      0.00      0.00      0.00      0.00      0.00      0.00      0.00      0.00      0.00      0.00      0.00      0.00      0.00      0.00      0.00      0.00      0.00      0.00      0.00      0.00      0.00      0.00      0.00      0.00      0.00      0.00      0.00      0.00      0.00      0.00      0.00      0.00      0.00      0.00
      0.00      0.00      0.00      0.00      0.00      0.00      0.00      0.00      0.00      0.00      0.00      0.00      0.00      0.00      0.00      0.00      0.00      0.00      0.00   1406.50   1400.03   1394.64   1390.42   1387.30   1385.10   1383.63   1382.72   1382.26   1382.12   1382.22   1382.48   1382.84   1383.25   1383.64   1384.02   1384.37   1384.68   1384.95   1385.14   1385.25   1385.28   1385.22   1385.09   1384.85   1384.48   1383.93   1383.19   1382.26   1381.19   1380.02   1378.83   1377.69   1376.67   1375.79   1375.00   1374.19   1373.23   1372.14   1370.97   1369.74   1368.48   1367.21   1365.94   1364.68   1363.42   1362.19   1361.00   1359.91   1358.95   1358.18   1357.63   1357.35   1357.34   1357.58   1358.02   1358.61   1359.31   1360.07   1360.87   1361.66   1362.40   1363.06   1363.62   1364.07   1364.38   1364.56   1364.60      0.00      0.00      0.00      0.00      0.00      0.00      0.00      0.00      0.00      0.00      0.00      0.00      0.00      0.00      0.00      0.00      0.00      0.00      0.00      0.00      0.00      0.00      0.00      0.00      0.00      0.00      0.00      0.00      0.00      0.00      0.00      0.00      0.00      0.00      0.00      0.00      0.00      0.00      0.00      0.00      0.00      0.00      0.00      0.00      0.00      0.00
      0.00      0.00      0.00      0.00      0.00      0.00      0.00      0.00      0.00      0.00      0.00      0.00      0.00      0.00      0.00      0.00   1436.44   1424.71   1413.67   1404.84   1399.35   1393.97   1389.76   1386.66   1384.46   1382.95   1381.98   1381.43   1381.21   1381.21   1381.39   1381.68   1382.04   1382.42   1382.80   1383.18   1383.55   1383.90   1384.19   1384.40   1384.51   1384.53   1384.45   1384.27   1383.97   1383.51   1382.86   1382.04   1381.05   1379.94   1378.79   1377.66   1376.63   1375.74   1375.00   1374.17   1373.19   1372.07   1370.87   1369.62   1368.35   1367.06   1365.77   1364.47   1363.18   1361.90   1360.66   1359.51   1358.52   1357.74   1357.22   1356.98   1357.03   1357.35   1357.87   1358.54   1359.30   1360.13   1360.99   1361.84   1362.63   1363.33   1363.92   1364.39   1364.72   1364.91   1364.97      0.00      0.00      0.00      0.00      0.00      0.00      0.00      0.00      0.00      0.00      0.00      0.00      0.00      0.00      0.00      0.00      0.00      0.00      0.00      0.00      0.00      0.00      0.00      0.00      0.00      0.00      0.00      0.00      0.00      0.00      0.00      0.00      0.00      0.00      0.00      0.00      0.00      0.00      0.00      0.00      0.00      0.00      0.00      0.00      0.00      0.00
      0.00      0.00      0.00      0.00      0.00      0.00      0.00      0.00      0.00      0.00      0.00      0.00      0.00      0.00   1455.66   1447.86   1435.99   1423.16   1411.24   1401.58   1396.49   1392.17   1388.62   1385.87   1383.85   1382.42   1381.45   1380.85   1380.55   1380.46   1380.54   1380.75   1381.04   1381.38   1381.75   1382.14   1382.55   1382.97   1383.34   1383.64   1383.83   1383.92   1383.89   1383.76   1383.51   1383.11   1382.53   1381.78   1380.85   1379.79   1378.66   1377.51   1376.44   1375.55   1375.00   1374.03   1372.94   1371.77   1370.54   1369.28   1368.00   1366.72   1365.42   1364.11   1362.80   1361.49   1360.22   1359.05   1358.04   1357.28   1356.79   1356.62   1356.75   1357.14   1357.74   1358.47   1359.29   1360.18   1361.10   1362.01   1362.84   1363.58   1364.20   1364.70   1365.05   1365.26   1365.32      0.00      0.00      0.00      0.00      0.00      0.00      0.00      0.00      0.00      0.00      0.00      0.00      0.00      0.00      0.00      0.00      0.00      0.00      0.00      0.00      0.00      0.00      0.00      0.00      0.00      0.00      0.00      0.00      0.00      0.00      0.00      0.00      0.00      0.00      0.00      0.00      0.00      0.00      0.00      0.00      0.00      0.00      0.00      0.00      0.00      0.00
      0.00      0.00      0.00      0.00      0.00      0.00      0.00      0.00      0.00      0.00      0.00      0.00      0.00   1462.84   1454.39   1446.59   1434.07   1420.84   1409.08   1400.29   1394.74   1390.67   1387.55   1385.16   1383.37   1382.06   1381.13   1380.50   1380.12   1379.94   1379.92   1380.03   1380.24   1380.52   1380.87   1381.26   1381.70   1382.15   1382.59   1382.96   1383.22   1383.37   1383.39   1383.29   1383.07   1382.70   1382.16   1381.44   1380.55   1379.52   1378.40   1377.24   1376.10   1375.01   1374.41   1373.50   1372.40   1371.20   1369.96   1368.70   1367.44   1366.17   1364.90   1363.60   1362.29   1360.97   1359.69   1358.51   1357.53   1356.80   1356.37   1356.27   1356.48   1356.96   1357.61   1358.39   1359.27   1360.21   1361.18   1362.14   1363.03   1363.81   1364.47   1364.99   1365.37   1365.59   1365.68      0.00      0.00      0.00      0.00      0.00      0.00      0.00      0.00      0.00      0.00      0.00      0.00      0.00      0.00      0.00      0.00      0.00      0.00      0.00      0.00      0.00      0.00      0.00      0.00      0.00      0.00      0.00      0.00      0.00      0.00      0.00      0.00      0.00      0.00      0.00      0.00      0.00      0.00      0.00      0.00      0.00      0.00      0.00      0.00      0.00      0.00
      0.00      0.00      0.00      0.00      0.00      0.00      0.00      0.00      0.00      0.00      0.00   1477.41   1466.69   1457.53   1450.07   1441.73   1430.00   1417.27   1406.20   1399.10   1393.46   1389.55   1386.77   1384.72   1383.16   1381.96   1381.05   1380.38   1379.91   1379.62   1379.49   1379.49   1379.60   1379.83   1380.14   1380.53   1380.98   1381.46   1381.94   1382.36   1382.68   1382.86   1382.91   1382.84   1382.62   1382.26   1381.73   1381.01   1380.12   1379.09   1377.98   1376.86   1375.84   1374.99   1373.90   1372.76   1371.57   1370.35   1369.11   1367.88   1366.66   1365.44   1364.20   1362.94   1361.65   1360.35   1359.09   1357.94   1356.99   1356.32   1355.98   1355.96   1356.25   1356.78   1357.48   1358.30   1359.20   1360.19   1361.21   1362.22   1363.16   1364.00   1364.71   1365.27   1365.68   1365.93   1366.03      0.00      0.00      0.00      0.00      0.00      0.00      0.00      0.00      0.00      0.00      0.00      0.00      0.00      0.00      0.00      0.00      0.00      0.00      0.00      0.00      0.00      0.00      0.00      0.00      0.00      0.00      0.00      0.00      0.00      0.00      0.00      0.00      0.00      0.00      0.00      0.00      0.00      0.00      0.00      0.00      0.00      0.00      0.00      0.00      0.00      0.00