#HOB file for the MODSIM/MODFLOW Model 1/7/2013
29271  0     0   90    -999
1
W_1    3    31    9    -887    1    0    0    0
1
W_1_1        1    1    1399.349976
W_1_8        8    1    1399.349976
W_1_15      15    1    1399.349976
W_1_22      22    1    1399.349976
W_1_29      29    1    1399.349976
W_1_36      36    1    1399.349976
W_1_43      43    1    1399.349976
W_1_50      50    1    1399.349976
W_1_57      57    1    1399.349976
W_1_64      64    1    1399.349976
W_1_71      71    1    1399.349976
W_1_78      78    1    1399.349976
W_1_85      85    1    1399.349976
W_1_92      92    1    1399.349976
W_1_99      99    1    1399.349976
W_1_106    106    1    1399.349976
W_1_113    113    1    1399.349976
W_1_120    120    1    1399.349976
W_1_127    127    1    1399.349976
W_1_134    134    1    1399.349976
W_1_141    141    1    1399.349976
W_1_148    148    1    1399.349976
W_1_155    155    1    1399.349976
W_1_162    162    1    1399.349976
W_1_169    169    1    1399.349976
W_1_176    176    1    1399.349976
W_1_183    183    1    1399.349976
W_1_190    190    1    1399.349976
W_1_197    197    1    1399.349976
W_1_204    204    1    1399.349976
W_1_211    211    1    1399.349976
W_1_218    218    1    1399.349976
W_1_225    225    1    1399.349976
W_1_232    232    1    1399.349976
W_1_239    239    1    1399.349976
W_1_246    246    1    1399.349976
W_1_253    253    1    1399.349976
W_1_260    260    1    1399.349976
W_1_267    267    1    1399.349976
W_1_274    274    1    1399.349976
W_1_281    281    1    1399.349976
W_1_288    288    1    1399.349976
W_1_295    295    1    1399.349976
W_1_302    302    1    1399.349976
W_1_309    309    1    1399.349976
W_1_316    316    1    1399.349976
W_1_323    323    1    1399.349976
W_1_330    330    1    1399.349976
W_1_337    337    1    1399.349976
W_1_344    344    1    1399.349976
W_1_351    351    1    1399.349976
W_1_358    358    1    1399.349976
W_1_365    365    1    1399.349976
W_1_372    372    1    1399.349976
W_1_379    379    1    1399.349976
W_1_386    386    1    1399.349976
W_1_393    393    1    1399.349976
W_1_400    400    1    1399.349976
W_1_407    407    1    1399.349976
W_1_414    414    1    1399.349976
W_1_421    421    1    1399.349976
W_1_428    428    1    1399.349976
W_1_435    435    1    1399.349976
W_1_442    442    1    1399.349976
W_1_449    449    1    1399.349976
W_1_456    456    1    1399.349976
W_1_463    463    1    1399.349976
W_1_470    470    1    1399.349976
W_1_477    477    1    1399.349976
W_1_484    484    1    1399.349976
W_1_491    491    1    1399.349976
W_1_498    498    1    1399.349976
W_1_505    505    1    1399.349976
W_1_512    512    1    1399.349976
W_1_519    519    1    1399.349976
W_1_526    526    1    1399.349976
W_1_533    533    1    1399.349976
W_1_540    540    1    1399.349976
W_1_547    547    1    1399.349976
W_1_554    554    1    1399.349976
W_1_561    561    1    1399.349976
W_1_568    568    1    1399.349976
W_1_575    575    1    1399.349976
W_1_582    582    1    1399.349976
W_1_589    589    1    1399.349976
W_1_596    596    1    1399.349976
W_1_603    603    1    1399.349976
W_1_610    610    1    1399.349976
W_1_617    617    1    1399.349976
W_1_624    624    1    1399.349976
W_1_631    631    1    1399.349976
W_1_638    638    1    1399.349976
W_1_645    645    1    1399.349976
W_1_652    652    1    1399.349976
W_1_659    659    1    1399.349976
W_1_666    666    1    1399.349976
W_1_673    673    1    1399.349976
W_1_680    680    1    1399.349976
W_1_687    687    1    1399.349976
W_1_694    694    1    1399.349976
W_1_701    701    1    1399.349976
W_1_708    708    1    1399.349976
W_1_715    715    1    1399.349976
W_1_722    722    1    1399.349976
W_1_729    729    1    1399.349976
W_1_736    736    1    1399.349976
W_1_743    743    1    1399.349976
W_1_750    750    1    1399.349976
W_1_757    757    1    1399.349976
W_1_764    764    1    1399.349976
W_1_771    771    1    1399.349976
W_1_778    778    1    1399.349976
W_1_785    785    1    1399.349976
W_1_792    792    1    1399.349976
W_1_799    799    1    1399.349976
W_1_806    806    1    1399.349976
W_1_813    813    1    1399.349976
W_1_820    820    1    1399.349976
W_1_827    827    1    1399.349976
W_1_834    834    1    1399.349976
W_1_841    841    1    1399.349976
W_1_848    848    1    1399.349976
W_1_855    855    1    1399.349976
W_1_862    862    1    1399.349976
W_1_869    869    1    1399.349976
W_1_876    876    1    1399.349976
W_1_883    883    1    1399.349976
W_1_890    890    1    1399.349976
W_1_897    897    1    1399.349976
W_1_904    904    1    1399.349976
W_1_911    911    1    1399.349976
W_1_918    918    1    1399.349976
W_1_925    925    1    1399.349976
W_1_932    932    1    1399.349976
W_1_939    939    1    1399.349976
W_1_946    946    1    1399.349976
W_1_953    953    1    1399.349976
W_1_960    960    1    1399.349976
W_1_967    967    1    1399.349976
W_1_974    974    1    1399.349976
W_1_981    981    1    1399.349976
W_1_988    988    1    1399.349976
W_1_995    995    1    1399.349976
W_1_1002    1002    1    1399.349976
W_1_1009    1009    1    1399.349976
W_1_1016    1016    1    1399.349976
W_1_1023    1023    1    1399.349976
W_1_1030    1030    1    1399.349976
W_1_1037    1037    1    1399.349976
W_1_1044    1044    1    1399.349976
W_1_1051    1051    1    1399.349976
W_1_1058    1058    1    1399.349976
W_1_1065    1065    1    1399.349976
W_1_1072    1072    1    1399.349976
W_1_1079    1079    1    1399.349976
W_1_1086    1086    1    1399.349976
W_1_1093    1093    1    1399.349976
W_1_1100    1100    1    1399.349976
W_1_1107    1107    1    1399.349976
W_1_1114    1114    1    1399.349976
W_1_1121    1121    1    1399.349976
W_1_1128    1128    1    1399.349976
W_1_1135    1135    1    1399.349976
W_1_1142    1142    1    1399.349976
W_1_1149    1149    1    1399.349976
W_1_1156    1156    1    1399.349976
W_1_1163    1163    1    1399.349976
W_1_1170    1170    1    1399.349976
W_1_1177    1177    1    1399.349976
W_1_1184    1184    1    1399.349976
W_1_1191    1191    1    1399.349976
W_1_1198    1198    1    1399.349976
W_1_1205    1205    1    1399.349976
W_1_1212    1212    1    1399.349976
W_1_1219    1219    1    1399.349976
W_1_1226    1226    1    1399.349976
W_1_1233    1233    1    1399.349976
W_1_1240    1240    1    1399.349976
W_1_1247    1247    1    1399.349976
W_1_1254    1254    1    1399.349976
W_1_1261    1261    1    1399.349976
W_1_1268    1268    1    1399.349976
W_1_1275    1275    1    1399.349976
W_1_1282    1282    1    1399.349976
W_1_1289    1289    1    1399.349976
W_1_1296    1296    1    1399.349976
W_1_1303    1303    1    1399.349976
W_1_1310    1310    1    1399.349976
W_1_1317    1317    1    1399.349976
W_1_1324    1324    1    1399.349976
W_1_1331    1331    1    1399.349976
W_1_1338    1338    1    1399.349976
W_1_1345    1345    1    1399.349976
W_1_1352    1352    1    1399.349976
W_1_1359    1359    1    1399.349976
W_1_1366    1366    1    1399.349976
W_1_1373    1373    1    1399.349976
W_1_1380    1380    1    1399.349976
W_1_1387    1387    1    1399.349976
W_1_1394    1394    1    1399.349976
W_1_1401    1401    1    1399.349976
W_1_1408    1408    1    1399.349976
W_1_1415    1415    1    1399.349976
W_1_1422    1422    1    1399.349976
W_1_1429    1429    1    1399.349976
W_1_1436    1436    1    1399.349976
W_1_1443    1443    1    1399.349976
W_1_1450    1450    1    1399.349976
W_1_1457    1457    1    1399.349976
W_1_1464    1464    1    1399.349976
W_1_1471    1471    1    1399.349976
W_1_1478    1478    1    1399.349976
W_1_1485    1485    1    1399.349976
W_1_1492    1492    1    1399.349976
W_1_1499    1499    1    1399.349976
W_1_1506    1506    1    1399.349976
W_1_1513    1513    1    1399.349976
W_1_1520    1520    1    1399.349976
W_1_1527    1527    1    1399.349976
W_1_1534    1534    1    1399.349976
W_1_1541    1541    1    1399.349976
W_1_1548    1548    1    1399.349976
W_1_1555    1555    1    1399.349976
W_1_1562    1562    1    1399.349976
W_1_1569    1569    1    1399.349976
W_1_1576    1576    1    1399.349976
W_1_1583    1583    1    1399.349976
W_1_1590    1590    1    1399.349976
W_1_1597    1597    1    1399.349976
W_1_1604    1604    1    1399.349976
W_1_1611    1611    1    1399.349976
W_1_1618    1618    1    1399.349976
W_1_1625    1625    1    1399.349976
W_1_1632    1632    1    1399.349976
W_1_1639    1639    1    1399.349976
W_1_1646    1646    1    1399.349976
W_1_1653    1653    1    1399.349976
W_1_1660    1660    1    1399.349976
W_1_1667    1667    1    1399.349976
W_1_1674    1674    1    1399.349976
W_1_1681    1681    1    1399.349976
W_1_1688    1688    1    1399.349976
W_1_1695    1695    1    1399.349976
W_1_1702    1702    1    1399.349976
W_1_1709    1709    1    1399.349976
W_1_1716    1716    1    1399.349976
W_1_1723    1723    1    1399.349976
W_1_1730    1730    1    1399.349976
W_1_1737    1737    1    1399.349976
W_1_1744    1744    1    1399.349976
W_1_1751    1751    1    1399.349976
W_1_1758    1758    1    1399.349976
W_1_1765    1765    1    1399.349976
W_1_1772    1772    1    1399.349976
W_1_1779    1779    1    1399.349976
W_1_1786    1786    1    1399.349976
W_1_1793    1793    1    1399.349976
W_1_1800    1800    1    1399.349976
W_1_1807    1807    1    1399.349976
W_1_1814    1814    1    1399.349976
W_1_1821    1821    1    1399.349976
W_1_1828    1828    1    1399.349976
W_1_1835    1835    1    1399.349976
W_1_1842    1842    1    1399.349976
W_1_1849    1849    1    1399.349976
W_1_1856    1856    1    1399.349976
W_1_1863    1863    1    1399.349976
W_1_1870    1870    1    1399.349976
W_1_1877    1877    1    1399.349976
W_1_1884    1884    1    1399.349976
W_1_1891    1891    1    1399.349976
W_1_1898    1898    1    1399.349976
W_1_1905    1905    1    1399.349976
W_1_1912    1912    1    1399.349976
W_1_1919    1919    1    1399.349976
W_1_1926    1926    1    1399.349976
W_1_1933    1933    1    1399.349976
W_1_1940    1940    1    1399.349976
W_1_1947    1947    1    1399.349976
W_1_1954    1954    1    1399.349976
W_1_1961    1961    1    1399.349976
W_1_1968    1968    1    1399.349976
W_1_1975    1975    1    1399.349976
W_1_1982    1982    1    1399.349976
W_1_1989    1989    1    1399.349976
W_1_1996    1996    1    1399.349976
W_1_2003    2003    1    1399.349976
W_1_2010    2010    1    1399.349976
W_1_2017    2017    1    1399.349976
W_1_2024    2024    1    1399.349976
W_1_2031    2031    1    1399.349976
W_1_2038    2038    1    1399.349976
W_1_2045    2045    1    1399.349976
W_1_2052    2052    1    1399.349976
W_1_2059    2059    1    1399.349976
W_1_2066    2066    1    1399.349976
W_1_2073    2073    1    1399.349976
W_1_2080    2080    1    1399.349976
W_1_2087    2087    1    1399.349976
W_1_2094    2094    1    1399.349976
W_1_2101    2101    1    1399.349976
W_1_2108    2108    1    1399.349976
W_1_2115    2115    1    1399.349976
W_1_2122    2122    1    1399.349976
W_1_2129    2129    1    1399.349976
W_1_2136    2136    1    1399.349976
W_1_2143    2143    1    1399.349976
W_1_2150    2150    1    1399.349976
W_1_2157    2157    1    1399.349976
W_1_2164    2164    1    1399.349976
W_1_2171    2171    1    1399.349976
W_1_2178    2178    1    1399.349976
W_1_2185    2185    1    1399.349976
W_1_2192    2192    1    1399.349976
W_1_2199    2199    1    1399.349976
W_1_2206    2206    1    1399.349976
W_1_2213    2213    1    1399.349976
W_1_2220    2220    1    1399.349976
W_1_2227    2227    1    1399.349976
W_1_2234    2234    1    1399.349976
W_1_2241    2241    1    1399.349976
W_1_2248    2248    1    1399.349976
W_1_2255    2255    1    1399.349976
W_1_2262    2262    1    1399.349976
W_1_2269    2269    1    1399.349976
W_1_2276    2276    1    1399.349976
W_1_2283    2283    1    1399.349976
W_1_2290    2290    1    1399.349976
W_1_2297    2297    1    1399.349976
W_1_2304    2304    1    1399.349976
W_1_2311    2311    1    1399.349976
W_1_2318    2318    1    1399.349976
W_1_2325    2325    1    1399.349976
W_1_2332    2332    1    1399.349976
W_1_2339    2339    1    1399.349976
W_1_2346    2346    1    1399.349976
W_1_2353    2353    1    1399.349976
W_1_2360    2360    1    1399.349976
W_1_2367    2367    1    1399.349976
W_1_2374    2374    1    1399.349976
W_1_2381    2381    1    1399.349976
W_1_2388    2388    1    1399.349976
W_1_2395    2395    1    1399.349976
W_1_2402    2402    1    1399.349976
W_1_2409    2409    1    1399.349976
W_1_2416    2416    1    1399.349976
W_1_2423    2423    1    1399.349976
W_1_2430    2430    1    1399.349976
W_1_2437    2437    1    1399.349976
W_1_2444    2444    1    1399.349976
W_1_2451    2451    1    1399.349976
W_1_2458    2458    1    1399.349976
W_1_2465    2465    1    1399.349976
W_1_2472    2472    1    1399.349976
W_1_2479    2479    1    1399.349976
W_1_2486    2486    1    1399.349976
W_1_2493    2493    1    1399.349976
W_1_2500    2500    1    1399.349976
W_1_2507    2507    1    1399.349976
W_1_2514    2514    1    1399.349976
W_1_2521    2521    1    1399.349976
W_1_2528    2528    1    1399.349976
W_1_2535    2535    1    1399.349976
W_1_2542    2542    1    1399.349976
W_1_2549    2549    1    1399.349976
W_1_2556    2556    1    1399.349976
W_1_2563    2563    1    1399.349976
W_1_2570    2570    1    1399.349976
W_1_2577    2577    1    1399.349976
W_1_2584    2584    1    1399.349976
W_1_2591    2591    1    1399.349976
W_1_2598    2598    1    1399.349976
W_1_2605    2605    1    1399.349976
W_1_2612    2612    1    1399.349976
W_1_2619    2619    1    1399.349976
W_1_2626    2626    1    1399.349976
W_1_2633    2633    1    1399.349976
W_1_2640    2640    1    1399.349976
W_1_2647    2647    1    1399.349976
W_1_2654    2654    1    1399.349976
W_1_2661    2661    1    1399.349976
W_1_2668    2668    1    1399.349976
W_1_2675    2675    1    1399.349976
W_1_2682    2682    1    1399.349976
W_1_2689    2689    1    1399.349976
W_1_2696    2696    1    1399.349976
W_1_2703    2703    1    1399.349976
W_1_2710    2710    1    1399.349976
W_1_2717    2717    1    1399.349976
W_1_2724    2724    1    1399.349976
W_1_2731    2731    1    1399.349976
W_1_2738    2738    1    1399.349976
W_1_2745    2745    1    1399.349976
W_1_2752    2752    1    1399.349976
W_1_2759    2759    1    1399.349976
W_1_2766    2766    1    1399.349976
W_1_2773    2773    1    1399.349976
W_1_2780    2780    1    1399.349976
W_1_2787    2787    1    1399.349976
W_1_2794    2794    1    1399.349976
W_1_2801    2801    1    1399.349976
W_1_2808    2808    1    1399.349976
W_1_2815    2815    1    1399.349976
W_1_2822    2822    1    1399.349976
W_1_2829    2829    1    1399.349976
W_1_2836    2836    1    1399.349976
W_1_2843    2843    1    1399.349976
W_1_2850    2850    1    1399.349976
W_1_2857    2857    1    1399.349976
W_1_2864    2864    1    1399.349976
W_1_2871    2871    1    1399.349976
W_1_2878    2878    1    1399.349976
W_1_2885    2885    1    1399.349976
W_1_2892    2892    1    1399.349976
W_1_2899    2899    1    1399.349976
W_1_2906    2906    1    1399.349976
W_1_2913    2913    1    1399.349976
W_1_2920    2920    1    1399.349976
W_1_2927    2927    1    1399.349976
W_1_2934    2934    1    1399.349976
W_1_2941    2941    1    1399.349976
W_1_2948    2948    1    1399.349976
W_1_2955    2955    1    1399.349976
W_1_2962    2962    1    1399.349976
W_1_2969    2969    1    1399.349976
W_1_2976    2976    1    1399.349976
W_1_2983    2983    1    1399.349976
W_1_2990    2990    1    1399.349976
W_1_2997    2997    1    1399.349976
W_1_3004    3004    1    1399.349976
W_1_3011    3011    1    1399.349976
W_1_3018    3018    1    1399.349976
W_1_3025    3025    1    1399.349976
W_1_3032    3032    1    1399.349976
W_1_3039    3039    1    1399.349976
W_1_3046    3046    1    1399.349976
W_1_3053    3053    1    1399.349976
W_1_3060    3060    1    1399.349976
W_1_3067    3067    1    1399.349976
W_1_3074    3074    1    1399.349976
W_1_3081    3081    1    1399.349976
W_1_3088    3088    1    1399.349976
W_1_3095    3095    1    1399.349976
W_1_3102    3102    1    1399.349976
W_1_3109    3109    1    1399.349976
W_1_3116    3116    1    1399.349976
W_1_3123    3123    1    1399.349976
W_1_3130    3130    1    1399.349976
W_1_3137    3137    1    1399.349976
W_1_3144    3144    1    1399.349976
W_1_3151    3151    1    1399.349976
W_1_3158    3158    1    1399.349976
W_1_3165    3165    1    1399.349976
W_1_3172    3172    1    1399.349976
W_1_3179    3179    1    1399.349976
W_1_3186    3186    1    1399.349976
W_1_3193    3193    1    1399.349976
W_1_3200    3200    1    1399.349976
W_1_3207    3207    1    1399.349976
W_1_3214    3214    1    1399.349976
W_1_3221    3221    1    1399.349976
W_1_3228    3228    1    1399.349976
W_1_3235    3235    1    1399.349976
W_1_3242    3242    1    1399.349976
W_1_3249    3249    1    1399.349976
W_1_3256    3256    1    1399.349976
W_1_3263    3263    1    1399.349976
W_1_3270    3270    1    1399.349976
W_1_3277    3277    1    1399.349976
W_1_3284    3284    1    1399.349976
W_1_3291    3291    1    1399.349976
W_1_3298    3298    1    1399.349976
W_1_3305    3305    1    1399.349976
W_1_3312    3312    1    1399.349976
W_1_3319    3319    1    1399.349976
W_1_3326    3326    1    1399.349976
W_1_3333    3333    1    1399.349976
W_1_3340    3340    1    1399.349976
W_1_3347    3347    1    1399.349976
W_1_3354    3354    1    1399.349976
W_1_3361    3361    1    1399.349976
W_1_3368    3368    1    1399.349976
W_1_3375    3375    1    1399.349976
W_1_3382    3382    1    1399.349976
W_1_3389    3389    1    1399.349976
W_1_3396    3396    1    1399.349976
W_1_3403    3403    1    1399.349976
W_1_3410    3410    1    1399.349976
W_1_3417    3417    1    1399.349976
W_1_3424    3424    1    1399.349976
W_1_3431    3431    1    1399.349976
W_1_3438    3438    1    1399.349976
W_1_3445    3445    1    1399.349976
W_1_3452    3452    1    1399.349976
W_1_3459    3459    1    1399.349976
W_1_3466    3466    1    1399.349976
W_1_3473    3473    1    1399.349976
W_1_3480    3480    1    1399.349976
W_1_3487    3487    1    1399.349976
W_1_3494    3494    1    1399.349976
W_1_3501    3501    1    1399.349976
W_1_3508    3508    1    1399.349976
W_1_3515    3515    1    1399.349976
W_1_3522    3522    1    1399.349976
W_1_3529    3529    1    1399.349976
W_1_3536    3536    1    1399.349976
W_1_3543    3543    1    1399.349976
W_1_3550    3550    1    1399.349976
W_1_3557    3557    1    1399.349976
W_1_3564    3564    1    1399.349976
W_1_3571    3571    1    1399.349976
W_1_3578    3578    1    1399.349976
W_1_3585    3585    1    1399.349976
W_1_3592    3592    1    1399.349976
W_1_3599    3599    1    1399.349976
W_1_3606    3606    1    1399.349976
W_1_3613    3613    1    1399.349976
W_1_3620    3620    1    1399.349976
W_1_3627    3627    1    1399.349976
W_1_3634    3634    1    1399.349976
W_1_3641    3641    1    1399.349976
W_1_3648    3648    1    1399.349976
W_1_3655    3655    1    1399.349976
W_1_3662    3662    1    1399.349976
W_1_3669    3669    1    1399.349976
W_1_3676    3676    1    1399.349976
W_1_3683    3683    1    1399.349976
W_1_3690    3690    1    1399.349976
W_1_3697    3697    1    1399.349976
W_1_3704    3704    1    1399.349976
W_1_3711    3711    1    1399.349976
W_1_3718    3718    1    1399.349976
W_1_3725    3725    1    1399.349976
W_1_3732    3732    1    1399.349976
W_1_3739    3739    1    1399.349976
W_1_3746    3746    1    1399.349976
W_1_3753    3753    1    1399.349976
W_1_3760    3760    1    1399.349976
W_1_3767    3767    1    1399.349976
W_1_3774    3774    1    1399.349976
W_1_3781    3781    1    1399.349976
W_1_3788    3788    1    1399.349976
W_1_3795    3795    1    1399.349976
W_1_3802    3802    1    1399.349976
W_1_3809    3809    1    1399.349976
W_1_3816    3816    1    1399.349976
W_1_3823    3823    1    1399.349976
W_1_3830    3830    1    1399.349976
W_1_3837    3837    1    1399.349976
W_1_3844    3844    1    1399.349976
W_1_3851    3851    1    1399.349976
W_1_3858    3858    1    1399.349976
W_1_3865    3865    1    1399.349976
W_1_3872    3872    1    1399.349976
W_1_3879    3879    1    1399.349976
W_1_3886    3886    1    1399.349976
W_1_3893    3893    1    1399.349976
W_1_3900    3900    1    1399.349976
W_1_3907    3907    1    1399.349976
W_1_3914    3914    1    1399.349976
W_1_3921    3921    1    1399.349976
W_1_3928    3928    1    1399.349976
W_1_3935    3935    1    1399.349976
W_1_3942    3942    1    1399.349976
W_1_3949    3949    1    1399.349976
W_1_3956    3956    1    1399.349976
W_1_3963    3963    1    1399.349976
W_1_3970    3970    1    1399.349976
W_1_3977    3977    1    1399.349976
W_1_3984    3984    1    1399.349976
W_1_3991    3991    1    1399.349976
W_1_3998    3998    1    1399.349976
W_1_4005    4005    1    1399.349976
W_1_4012    4012    1    1399.349976
W_1_4019    4019    1    1399.349976
W_1_4026    4026    1    1399.349976
W_1_4033    4033    1    1399.349976
W_1_4040    4040    1    1399.349976
W_1_4047    4047    1    1399.349976
W_1_4054    4054    1    1399.349976
W_1_4061    4061    1    1399.349976
W_1_4068    4068    1    1399.349976
W_1_4075    4075    1    1399.349976
W_1_4082    4082    1    1399.349976
W_1_4089    4089    1    1399.349976
W_1_4096    4096    1    1399.349976
W_1_4103    4103    1    1399.349976
W_1_4110    4110    1    1399.349976
W_1_4117    4117    1    1399.349976
W_1_4124    4124    1    1399.349976
W_1_4131    4131    1    1399.349976
W_1_4138    4138    1    1399.349976
W_1_4145    4145    1    1399.349976
W_1_4152    4152    1    1399.349976
W_1_4159    4159    1    1399.349976
W_1_4166    4166    1    1399.349976
W_1_4173    4173    1    1399.349976
W_1_4180    4180    1    1399.349976
W_1_4187    4187    1    1399.349976
W_1_4194    4194    1    1399.349976
W_1_4201    4201    1    1399.349976
W_1_4208    4208    1    1399.349976
W_1_4215    4215    1    1399.349976
W_1_4222    4222    1    1399.349976
W_1_4229    4229    1    1399.349976
W_1_4236    4236    1    1399.349976
W_1_4243    4243    1    1399.349976
W_1_4250    4250    1    1399.349976
W_1_4257    4257    1    1399.349976
W_1_4264    4264    1    1399.349976
W_1_4271    4271    1    1399.349976
W_1_4278    4278    1    1399.349976
W_1_4285    4285    1    1399.349976
W_1_4292    4292    1    1399.349976
W_1_4299    4299    1    1399.349976
W_1_4306    4306    1    1399.349976
W_1_4313    4313    1    1399.349976
W_1_4320    4320    1    1399.349976
W_1_4327    4327    1    1399.349976
W_1_4334    4334    1    1399.349976
W_1_4341    4341    1    1399.349976
W_1_4348    4348    1    1399.349976
W_1_4355    4355    1    1399.349976
W_1_4362    4362    1    1399.349976
W_1_4369    4369    1    1399.349976
W_1_4376    4376    1    1399.349976
W_1_4383    4383    1    1399.349976
W_1_4390    4390    1    1399.349976
W_1_4397    4397    1    1399.349976
W_1_4404    4404    1    1399.349976
W_1_4411    4411    1    1399.349976
W_1_4418    4418    1    1399.349976
W_1_4425    4425    1    1399.349976
W_1_4432    4432    1    1399.349976
W_1_4439    4439    1    1399.349976
W_1_4446    4446    1    1399.349976
W_1_4453    4453    1    1399.349976
W_1_4460    4460    1    1399.349976
W_1_4467    4467    1    1399.349976
W_1_4474    4474    1    1399.349976
W_1_4481    4481    1    1399.349976
W_1_4488    4488    1    1399.349976
W_1_4495    4495    1    1399.349976
W_1_4502    4502    1    1399.349976
W_1_4509    4509    1    1399.349976
W_1_4516    4516    1    1399.349976
W_1_4523    4523    1    1399.349976
W_1_4530    4530    1    1399.349976
W_1_4537    4537    1    1399.349976
W_1_4544    4544    1    1399.349976
W_1_4551    4551    1    1399.349976
W_1_4558    4558    1    1399.349976
W_1_4565    4565    1    1399.349976
W_1_4572    4572    1    1399.349976
W_1_4579    4579    1    1399.349976
W_1_4586    4586    1    1399.349976
W_1_4593    4593    1    1399.349976
W_1_4600    4600    1    1399.349976
W_1_4607    4607    1    1399.349976
W_1_4614    4614    1    1399.349976
W_1_4621    4621    1    1399.349976
W_1_4628    4628    1    1399.349976
W_1_4635    4635    1    1399.349976
W_1_4642    4642    1    1399.349976
W_1_4649    4649    1    1399.349976
W_1_4656    4656    1    1399.349976
W_1_4663    4663    1    1399.349976
W_1_4670    4670    1    1399.349976
W_1_4677    4677    1    1399.349976
W_1_4684    4684    1    1399.349976
W_1_4691    4691    1    1399.349976
W_1_4698    4698    1    1399.349976
W_1_4705    4705    1    1399.349976
W_1_4712    4712    1    1399.349976
W_1_4719    4719    1    1399.349976
W_1_4726    4726    1    1399.349976
W_1_4733    4733    1    1399.349976
W_1_4740    4740    1    1399.349976
W_1_4747    4747    1    1399.349976
W_1_4754    4754    1    1399.349976
W_1_4761    4761    1    1399.349976
W_1_4768    4768    1    1399.349976
W_1_4775    4775    1    1399.349976
W_1_4782    4782    1    1399.349976
W_1_4789    4789    1    1399.349976
W_1_4796    4796    1    1399.349976
W_1_4803    4803    1    1399.349976
W_1_4810    4810    1    1399.349976
W_1_4817    4817    1    1399.349976
W_1_4824    4824    1    1399.349976
W_1_4831    4831    1    1399.349976
W_1_4838    4838    1    1399.349976
W_1_4845    4845    1    1399.349976
W_1_4852    4852    1    1399.349976
W_1_4859    4859    1    1399.349976
W_1_4866    4866    1    1399.349976
W_1_4873    4873    1    1399.349976
W_1_4880    4880    1    1399.349976
W_1_4887    4887    1    1399.349976
W_1_4894    4894    1    1399.349976
W_1_4901    4901    1    1399.349976
W_1_4908    4908    1    1399.349976
W_1_4915    4915    1    1399.349976
W_1_4922    4922    1    1399.349976
W_1_4929    4929    1    1399.349976
W_1_4936    4936    1    1399.349976
W_1_4943    4943    1    1399.349976
W_1_4950    4950    1    1399.349976
W_1_4957    4957    1    1399.349976
W_1_4964    4964    1    1399.349976
W_1_4971    4971    1    1399.349976
W_1_4978    4978    1    1399.349976
W_1_4985    4985    1    1399.349976
W_1_4992    4992    1    1399.349976
W_1_4999    4999    1    1399.349976
W_1_5006    5006    1    1399.349976
W_1_5013    5013    1    1399.349976
W_1_5020    5020    1    1399.349976
W_1_5027    5027    1    1399.349976
W_1_5034    5034    1    1399.349976
W_1_5041    5041    1    1399.349976
W_1_5048    5048    1    1399.349976
W_1_5055    5055    1    1399.349976
W_1_5062    5062    1    1399.349976
W_1_5069    5069    1    1399.349976
W_1_5076    5076    1    1399.349976
W_1_5083    5083    1    1399.349976
W_1_5090    5090    1    1399.349976
W_1_5097    5097    1    1399.349976
W_1_5104    5104    1    1399.349976
W_1_5111    5111    1    1399.349976
W_1_5118    5118    1    1399.349976
W_1_5125    5125    1    1399.349976
W_1_5132    5132    1    1399.349976
W_1_5139    5139    1    1399.349976
W_1_5146    5146    1    1399.349976
W_1_5153    5153    1    1399.349976
W_1_5160    5160    1    1399.349976
W_1_5167    5167    1    1399.349976
W_1_5174    5174    1    1399.349976
W_1_5181    5181    1    1399.349976
W_1_5188    5188    1    1399.349976
W_1_5195    5195    1    1399.349976
W_1_5202    5202    1    1399.349976
W_1_5209    5209    1    1399.349976
W_1_5216    5216    1    1399.349976
W_1_5223    5223    1    1399.349976
W_1_5230    5230    1    1399.349976
W_1_5237    5237    1    1399.349976
W_1_5244    5244    1    1399.349976
W_1_5251    5251    1    1399.349976
W_1_5258    5258    1    1399.349976
W_1_5265    5265    1    1399.349976
W_1_5272    5272    1    1399.349976
W_1_5279    5279    1    1399.349976
W_1_5286    5286    1    1399.349976
W_1_5293    5293    1    1399.349976
W_1_5300    5300    1    1399.349976
W_1_5307    5307    1    1399.349976
W_1_5314    5314    1    1399.349976
W_1_5321    5321    1    1399.349976
W_1_5328    5328    1    1399.349976
W_1_5335    5335    1    1399.349976
W_1_5342    5342    1    1399.349976
W_1_5349    5349    1    1399.349976
W_1_5356    5356    1    1399.349976
W_1_5363    5363    1    1399.349976
W_1_5370    5370    1    1399.349976
W_1_5377    5377    1    1399.349976
W_1_5384    5384    1    1399.349976
W_1_5391    5391    1    1399.349976
W_1_5398    5398    1    1399.349976
W_1_5405    5405    1    1399.349976
W_1_5412    5412    1    1399.349976
W_1_5419    5419    1    1399.349976
W_1_5426    5426    1    1399.349976
W_1_5433    5433    1    1399.349976
W_1_5440    5440    1    1399.349976
W_1_5447    5447    1    1399.349976
W_1_5454    5454    1    1399.349976
W_1_5461    5461    1    1399.349976
W_1_5468    5468    1    1399.349976
W_1_5475    5475    1    1399.349976
W_1_5482    5482    1    1399.349976
W_1_5489    5489    1    1399.349976
W_1_5496    5496    1    1399.349976
W_1_5503    5503    1    1399.349976
W_1_5510    5510    1    1399.349976
W_1_5517    5517    1    1399.349976
W_1_5524    5524    1    1399.349976
W_1_5531    5531    1    1399.349976
W_1_5538    5538    1    1399.349976
W_1_5545    5545    1    1399.349976
W_1_5552    5552    1    1399.349976
W_1_5559    5559    1    1399.349976
W_1_5566    5566    1    1399.349976
W_1_5573    5573    1    1399.349976
W_1_5580    5580    1    1399.349976
W_1_5587    5587    1    1399.349976
W_1_5594    5594    1    1399.349976
W_1_5601    5601    1    1399.349976
W_1_5608    5608    1    1399.349976
W_1_5615    5615    1    1399.349976
W_1_5622    5622    1    1399.349976
W_1_5629    5629    1    1399.349976
W_1_5636    5636    1    1399.349976
W_1_5643    5643    1    1399.349976
W_1_5650    5650    1    1399.349976
W_1_5657    5657    1    1399.349976
W_1_5664    5664    1    1399.349976
W_1_5671    5671    1    1399.349976
W_1_5678    5678    1    1399.349976
W_1_5685    5685    1    1399.349976
W_1_5692    5692    1    1399.349976
W_1_5699    5699    1    1399.349976