# MODFLOW2005 NWT Input File
# SAGEHEN-GRID Test Problem 
#HEADTOL  FLUXTOL MAXITEROUT THICKFACT LINMETH IPRNWT IBOTAV HDRYFLAG OPTIONS DBDREDUCE DBDINCREASE DBDGAMMA MOMFACT BACKFLAG MAXBACKITER BACKTOL BACKREDUCE
1.0E-2 1.0 500 5.0e-4  2  1 1 1 SPECIFIED 0.90 0.0001 0.0  0.10 0  20 2.0 0.6  linmeth=1 (GMRES); =2 (xmd)  
2 0 3 7 0 0.0 0 0 1.0E-9 15 1.0e-6      100 2  2  1.0e-9  20  4       XMD (faster results--6.7 seconds)
