LIST          7 D:\GSFLOW\GSFLOW_Runs\Shullcas_3\outputs\MODFLOW_NWT\\test.lst 
BAS6          8 D:\GSFLOW\GSFLOW_Runs\Shullcas_3\inputs\MODFLOW_NWT\\test2lay_py.ba6
UPW          25 D:\GSFLOW\GSFLOW_Runs\Shullcas_3\inputs\MODFLOW_NWT\\test2lay_py.upw
NWT          17 D:\GSFLOW\GSFLOW_Runs\Shullcas_3\inputs\MODFLOW_NWT\\test2lay_py.nwt
OC           22 D:\GSFLOW\GSFLOW_Runs\Shullcas_3\inputs\MODFLOW_NWT\\test2lay_py.oc
DIS          10 D:\GSFLOW\GSFLOW_Runs\Shullcas_3\inputs\MODFLOW_NWT\\test2lay_py.dis
UZF          12 D:\GSFLOW\GSFLOW_Runs\Shullcas_3\inputs\MODFLOW_NWT\\test2lay_py.uzf
SFR          13 D:\GSFLOW\GSFLOW_Runs\Shullcas_3\inputs\MODFLOW_NWT\\test2lay_py.sfr
IWRT         91 D:\GSFLOW\GSFLOW_Runs\Shullcas_3\outputs\MODFLOW_NWT\\test2lay_py.out
DATA(BINARY) 34 D:\GSFLOW\GSFLOW_Runs\Shullcas_3\outputs\MODFLOW_NWT\test.bud 
DATA(BINARY) 51 D:\GSFLOW\GSFLOW_Runs\Shullcas_3\outputs\MODFLOW_NWT\\testhead.dat 
DATA(BINARY) 61 D:\GSFLOW\GSFLOW_Runs\Shullcas_3\outputs\MODFLOW_NWT\\uzf.dat 
DATA         52 D:\GSFLOW\GSFLOW_Runs\Shullcas_3\outputs\MODFLOW_NWT\\ibound.dat 
