LIST          7 ..\outputs\test.lst 
BAS6          8 ..\inputs\MODFLOW_NWT\test2lay_py.ba6
UPW          25 ..\inputs\MODFLOW_NWT\test2lay_py.upw
NWT          17 ..\inputs\MODFLOW_NWT\test2lay_py.nwt
OC           22 ..\inputs\MODFLOW_NWT\test2lay_py.oc
DIS          10 ..\inputs\MODFLOW_NWT\test2lay_py.dis
UZF          12 ..\inputs\MODFLOW_NWT\test2lay_py.uzf
SFR          13 ..\inputs\MODFLOW_NWT\test2lay_py.sfr
IWRT         91 ..\inputs\MODFLOW_NWT\test2lay_py.out
DATA(BINARY) 34 ..\outputs\MODFLOW_NWT\test.bud 
DATA(BINARY) 51 ..\outputs\MODFLOW_NWT\testhead.dat 
DATA(BINARY) 61 ..\outputs\MODFLOW_NWT\uzf.dat 
DATA         52 ..\outputs\MODFLOW_NWT\ibound.dat 
